/*--------------------------------*- C++ -*----------------------------------*\
| =========                 |                                                 |
| \\      /  F ield         | OpenFOAM: The Open Source CFD Toolbox           |
|  \\    /   O peration     | Version:  dev                                   |
|   \\  /    A nd           | Web:      www.OpenFOAM.org                      |
|    \\/     M anipulation  |                                                 |
\*---------------------------------------------------------------------------*/
FoamFile
{
    version     2.0;
    format      ascii;
    class       dictionary;
    object      blockMeshDict;
}
// * * * * * * * * * * * * * * * * * * * * * * * * * * * * * * * * * * * * * //

convertToMeters 1000;

xmin  -2;
xmax  2;
nx    100;

zmin  -1;
zmax  3;
nz    100;

vertices
(
    ($xmin -1 $zmin)
    ($xmax -1 $zmin)
    ($xmax 1 $zmin)
    ($xmin 1 $zmin)
    ($xmin -1 $zmax)
    ($xmax -1 $zmax)
    ($xmax 1 $zmax)
    ($xmin 1 $zmax)
);

blocks
(
    hex (0 1 2 3 4 5 6 7) ($nx 1 $nz) simpleGrading (1 1 1)
);

edges
(
);

boundary
(
    top
    {
        type            cyclic;
        neighbourPatch  ground;
        faces ((4 5 6 7));
    }
    inlet
    {
        type            cyclic;
        neighbourPatch  outlet;
        faces           ((0 4 7 3));
    }
    outlet
    {
        type            cyclic;
        neighbourPatch  inlet;
        faces           ((2 6 5 1));
    }
    ground
    {
        type            cyclic;
        neighbourPatch  top;
        faces ((0 3 2 1));
    }
    front
    {
        type empty;
        faces ((0 1 5 4));
    }
    back
    {
        type empty;
        faces ((2 3 7 6));
    }
);

mergePatchPairs
(
);

// ************************************************************************* //
