FoamFile {
        version     2.0;
        format      ascii;
        class       dictionary;
        location    "system";
        object      controlDict;
    }

    startFrom       startTime;
    startTime       0;
    stopAt          endTime;
    endTime         1800;
    deltaT          0.5;
    writeControl    runTime;
    writeInterval   20;
    purgeWrite      0;
    writeFormat     binary;
    writePrecision  6;
    writeCompression uncompressed;
    timeFormat      general;
    timePrecision   12;
    runTimeModifiable no;
    adjustTimeStep no;
    maxCo          1;
    libs           ("libfiniteVolumeAtmos.so");
    
