/*--------------------------------*- C++ -*----------------------------------*\
| =========                 |                                                 |
| \\      /  F ield         | OpenFOAM: The Open Source CFD Toolbox           |
|  \\    /   O peration     | Version:  1.5                                   |
|   \\  /    A nd           | Web:      http://www.OpenFOAM.org               |
|    \\/     M anipulation  |                                                 |
\*---------------------------------------------------------------------------*/
FoamFile {
    version     2.0;
    format      ascii;
    class       dictionary;
    location    "system";
    object      fvSolution;
}

// * * * * * * * * * * * * * * * * * * * * * * * * * * * * * * * * * * * * * //

implicitSource false;
implicitConservation false;
CrankNicolsonAlpha 0.;
numberOfCorrectors 1;
operatorSplitting 0;
opSplitOffCenterCoefficient 0.;
timeScale 1;

solvers
{
    "(rt_diag|rl|rv)"
    {
        solver          PBiCG;
        preconditioner  DILU;
        tolerance       1e-08
        relTol          0;
    }
}

